#override USE_generic_tracer = True
#override MAX_FIELDS=500
#override TIDE_NODAL_REF_DATE = 1993,7,2
DT_OBC_SEG_UPDATE_OBGC = 1800
#override CHL_FROM_FILE = False
#override DO_GEOTHERMAL = True
#override GENERIC_TRACER_IC_FILE = "NWA12_COBALT_2023_10_spinup_2003.nc"
#override EPBL_ANSWER_DATE = 20231231
#override MLD_ITERATION_GUESS = False
#override REMAP_AUXILIARY_VARS = True
#override DIABATIC_FIRST = False
#override EQN_OF_STATE = "WRIGHT_FULL"
#override PHA_MLD_CALC = True
#override PHA_MLD_USE_DELTA_RHO = True
#override PHA_MLD_HREF = 10.0
#override PHA_MLD_DRHO = 0.03
#override HREF_FOR_MLD = 10.0 
#override DIAG_MLD_DENSITY_DIFF = 0.03
