! This file was written by the model and records the non-default parameters used at run-time.

! === module COBALT ===
