! This file was written by the model and records the non-default parameters used at run-time.

! === module COBALT ===

! === module MOM_file_parser ===
DOCUMENT_FILE = "COBALT_parameter_doc" ! default = "MOM_parameter_doc"
                                ! The basename for files where run-time parameters, their settings, units and
                                ! defaults are documented. Blank will disable all parameter documentation.
