! This file was written by the model and records the non-default parameters used at run-time.

! === module COBALT ===
do_case2_mod = True             !   [Boolean] default = False
                                ! When true, modify the opacity of case 2 (coastal) waterswhich are identified
                                ! based on a salinity and depth threshold
scale_burial = 1.0              !   [none] default = 0.0
                                ! scaling factor for particulate organic burial
