! This file was written by the model and records all non-layout or debugging parameters used at run-time.

! === module COBALT ===
init = False                    !   [Boolean] default = False
                                ! init
htotal_in = 1.0E-08             ! default = 1.0E-08
                                ! htotal_in
wsink = 100.0                   !   [m day-1] default = 100.0
                                ! wsink
ice_restart_file = "ice_cobalt.res.nc" ! default = "ice_cobalt.res.nc"
                                ! ice_restart_file
ocean_restart_file = "ocean_cobalt.res.nc" ! default = "ocean_cobalt.res.nc"
                                ! ocean_restart_file
IC_file = ""                    ! default = ""
                                ! IC_file
htotal_scale_lo = 0.01          ! default = 0.01
                                ! scaling factor for initializing carbon chemistry solver
htotal_scale_hi = 100.0         ! default = 100.0
                                ! scaling factor for initializing carbon chemistry solver
RHO_0 = 1035.0                  !   [kg m-3] default = 1035.0
                                ! reference density
a_0 = 2.00907                   !   [ml L-1] default = 2.00907
                                ! O2 sat. regression coefficient
a_1 = 3.22014                   !   [ml L-1] default = 3.22014
                                ! O2 sat. regression coefficient
a_2 = 4.0501                    !   [ml L-1] default = 4.0501
                                ! O2 sat. regression coefficient
a_3 = 4.94457                   !   [ml L-1] default = 4.94457
                                ! O2 sat. regression coefficient
a_4 = -0.256847                 !   [ml L-1] default = -0.256847
                                ! O2 sat. regression coefficient
a_5 = 3.88767                   !   [ml L-1] default = 3.88767
                                ! O2 sat. regression coefficient
b_0 = -0.00624523               !   [ml L-1 (ppt salt)-1)] default = -0.00624523
                                ! O2 sat. regression coefficient
b_1 = -0.00737614               !   [ml L-1 (ppt salt)-1] default = -0.00737614
                                ! O2 sat. regression coefficient
b_2 = -0.010341                 !   [ml L-1 (ppt salt)-1] default = -0.010341
                                ! O2 sat. regression coefficient
b_3 = -0.00817083               !   [ml L-1 (ppt salt)-1] default = -0.00817083
                                ! O2 sat. regression coefficient
c_0 = -4.88682E-07              !   [ml L-1 (ppt salt)-2] default = -4.88682E-07
                                ! O2 sat. regression coefficient
a1_co2 = 2116.8                 !   [dimensionless] default = 2116.8
                                ! CO2 Schmidt # regression coefficient
a2_co2 = -136.25                !   [deg. C-1] default = -136.25
                                ! CO2 Schmidt # regression coefficient
a3_co2 = 4.7353                 !   [deg. C-2] default = 4.7353
                                ! CO2 Schmidt # regression coefficient
a4_co2 = -0.092307              !   [deg. C-3] default = -0.092307
                                ! CO2 Schmidt # regression coefficient
a5_co2 = 7.555E-04              !   [deg. C-4] default = 7.555E-04
                                ! CO2 Schmidt # regression coefficient
a1_o2 = 1920.4                  !   [dimensionless] default = 1920.4
                                ! O2 Schmidt # regression coefficient
a2_o2 = -135.6                  !   [deg. C-1] default = -135.6
                                ! O2 Schmidt # regression coefficient
a3_o2 = 5.2122                  !   [deg. C-2] default = 5.2122
                                ! O2 Schmidt # regression coefficient
a4_o2 = -0.10939                !   [deg. C-3] default = -0.10939
                                ! O2 Schmidt # regression coefficient
a5_o2 = 9.3777E-04              !   [deg. C-4] default = 9.3777E-04
                                ! O2 Schmidt # regression coefficient
n_2_n_denit = 5.9               !   [mol N mol N-1] default = 5.9
                                ! moles NO3 used per mole org. N remineralized via denitrification
no3_2_nh4_amx = 0.6             !   [mol N mol N-1] default = 0.6
                                ! moles NO3 used per mole NH4+ oxidized to N2 via anammox
o2_2_nfix = 8.125               !   [mol O2 mol N-1] default = 8.125
                                ! moles O2 created per mole of N fixed
o2_2_nh4 = 7.375                !   [mol O2 mol N-1] default = 7.375
                                ! moles O2 created (consumed) per mole NH4-based prim. prod. (aerobic
                                ! remineralization to NH4+)
o2_2_nitrif = 2.0               !   [mol O2 mol N-1] default = 2.0
                                ! moles O2 consumed per mole of NH4+ nitrified to NO3-
o2_2_no3 = 9.375                !   [mol O2 mol N-1] default = 9.375
                                ! moles O2 created per mole of NO3-based prim. prod.
alk_2_n_denit = 1.1694915254237288 !   [mol alk mol N-1] default = 1.1694915254237288
                                ! moles alkalinity created per mole NO3- consumed during denitrification
alk_2_nh4_amx = 0.4             !   [mol alk mol N-1] default = 0.4
                                ! moles alkalinity removed per mole NH4+ consumed via anammox
k_nh4_Di = 1.0E-07              !   [mol NH4 kg-1] default = 1.0E-07
                                ! half-saturation for diazotroph ammonium uptake
k_nh4_Lg = 5.0E-08              !   [mol NH4 kg-1] default = 5.0E-08
                                ! half-saturation for large phytoplankton ammonium uptake and growth limitation
k_nh4_Md = 2.0E-08              !   [mol NH4 kg-1] default = 2.0E-08
                                ! half-saturation for medium phytoplankton ammonium uptake and growth limitation
k_nh4_Sm = 1.0E-08              !   [mol NH4 kg-1] default = 1.0E-08
                                ! half-saturation for small phytoplankton ammonium uptake and growth limitation
k_no3_Di = 5.0E-06              !   [mol NO3 kg-1] default = 5.0E-06
                                ! half-saturation for diazotroph nitrate uptake
k_no3_Lg = 2.5E-06              !   [mol NO3 kg-1] default = 2.5E-06
                                ! half-saturation for large phytoplankton nitrate uptake and growth limitation
k_no3_Md = 1.0E-06              !   [mol NO3 kg-1] default = 1.0E-06
                                ! half-saturation for medium phytoplankton nitrate uptake and growth limitation
k_no3_Sm = 5.0E-07              !   [mol NO3 kg-1] default = 5.0E-07
                                ! half-saturation for small phytoplankton nitrate uptake and growth limitation
k_po4_Di = 1.0E-07              !   [mol PO4 kg-1] default = 1.0E-07
                                ! half-saturation for diazotroph phosphate uptake and limitation
k_po4_Lg = 5.0E-08              !   [mol PO4 kg-1] default = 5.0E-08
                                ! half-saturation for large phytoplankton phosphate uptake and growth limitation
k_po4_Md = 2.0E-08              !   [mol PO4 kg-1] default = 2.0E-08
                                ! half-saturation for medium phytoplankton phosphate uptake and growth
                                ! limitation
k_po4_Sm = 1.0E-08              !   [mol PO4 kg-1] default = 1.0E-08
                                ! half-saturation for small phytoplankton phosphate uptake and growth limitation
k_sio4_Lg = 2.0E-06             !   [mol SiO4 kg-1] default = 2.0E-06
                                ! half-saturation for large phytoplankton silicate uptake and Si:N ratio
k_sio4_Md = 1.0E-06             !   [mol SiO4 kg-1] default = 1.0E-06
                                ! half-saturation for medium phytoplankton silicate uptake and Si:N ratio
k_fed_Di = 4.0E-09              !   [mol Fed kg-1] default = 4.0E-09
                                ! half-saturation constant for diazotroph iron uptake and growth limitation
k_fed_Lg = 2.0E-09              !   [mol Fed kg-1] default = 2.0E-09
                                ! half-saturation for large phytoplankton iron uptake and growth limitation
k_fed_Md = 8.0E-10              !   [mol Fed kg-1] default = 8.0E-10
                                ! half-saturation for medium phytoplankton iron uptake and growth limitation
k_fed_Sm = 4.0E-10              !   [mol Fed kg-1] default = 4.0E-10
                                ! half-saturation for small phytoplankton iron uptake and growth limitation
k_fe_2_n_Di = 7.950000000000001E-05 !   [mol Fe (mol N)-1] default = 7.950000000000001E-05
                                ! internal iron quota half-saturation for diazotroph growth
k_fe_2_n_Lg = 6.625000000000001E-05 !   [mol Fe (mol N)-1] default = 6.625000000000001E-05
                                ! internal iron quota half-saturation for large phytoplankton growth
k_fe_2_n_Md = 2.65E-05          !   [mol Fe (mol N)-1] default = 2.65E-05
                                ! internal iron quota half-saturation for medium phytoplankton growth
k_fe_2_n_Sm = 1.325E-05         !   [mol Fe (mol N)-1] default = 1.325E-05
                                ! internal iron quota half-saturation for small phytoplankton growth
fe_2_n_max_Di = 0.0033125       !   [mol Fe (mol N)-1] default = 0.0033125
                                ! maximum internal iron quota for diazotrophs
fe_2_n_max_Lg = 0.0033125       !   [mol Fe (mol N)-1] default = 0.0033125
                                ! maximum internal iron quota for large phytoplankton
fe_2_n_max_Md = 0.00165625      !   [mol Fe (mol N)-1] default = 0.00165625
                                ! maximum internal iron quota for medium phytoplankton
fe_2_n_max_Sm = 3.3125E-04      !   [mol Fe (mol N)-1] default = 3.3125E-04
                                ! maximum internal iron quota for small phytoplankton
fe_2_n_upt_fac = 6.0E-05        !   [mol Fe (mol N)-1] default = 6.0E-05
                                ! scaling factor for iron uptake relative to maximum photosynthesis
alpha_Di_hl = 4.0E-06           !   [g C g Chl-1 (micromol quanta m-2)-1] default = 4.0E-06
                                ! Chl-a specific initial slope of photosynth-irrad curve, high-light adapted
                                ! diazotrophs
alpha_Lg_hl = 4.0E-06           !   [g C g Chl-1 (micromol quanta m-2)-1] default = 4.0E-06
                                ! Chl-a specific initial slope of photosynth-irrad curve, high-light adapted
                                ! large phytoplankton
alpha_Md_hl = 8.0E-06           !   [g C g Chl-1 (micromol quanta m-2)-1] default = 8.0E-06
                                ! Chl-a specific initial slope of photosynth-irrad curve, high-light adapted
                                ! medium phytoplankton
alpha_Sm_hl = 1.6E-05           !   [g C g Chl-1 (micromol quanta m-2)-1] default = 1.6E-05
                                ! Chl-a specific initial slope of photosynth-irrad curve, high-light adapted
                                ! small phytoplankton
alpha_Di_ll = 8.0E-06           !   [g C g Chl-1 (micromol quanta m-2)-1] default = 8.0E-06
                                ! Chl-a specific initial slope of photosynth-irrad curve, low-light adapted
                                ! diazotrophs
alpha_Lg_ll = 8.0E-06           !   [g C g Chl-1 (micromol quanta m-2)-1] default = 8.0E-06
                                ! Chl-a specific initial slope of photosynth-irrad curve, low-light adapted
                                ! large phytoplankton
alpha_Md_ll = 1.6E-05           !   [g C g Chl-1 (micromol quanta m-2)-1] default = 1.6E-05
                                ! Chl-a specific initial slope of photosynth-irrad curve, low-light adapted
                                ! medium phytoplankton
alpha_Sm_ll = 3.2E-05           !   [g C g Chl-1 (micromol quanta m-2)-1] default = 3.2E-05
                                ! Chl-a specific initial slope of photosynth-irrad curve, low-light adapted
                                ! small phytoplankton
kappa_eppley = 0.063            !   [deg C-1] default = 0.063
                                ! exponential temperature dependence of phytoplankton rates
P_C_max_Di_hl = 0.6             !   [day-1] default = 0.6
                                ! maximum photosynthesis rate at 0 deg. C, high-light adapted diazotrophs
P_C_max_Lg_hl = 1.0             !   [day-1] default = 1.0
                                ! maximum photosynthesis rate at 0 deg. C, high-light adapted large
                                ! phytoplankton
P_C_max_Md_hl = 1.1             !   [day-1] default = 1.1
                                ! maximum photosynthesis rate at 0 deg. C, high-light adapted medium
                                ! phytoplankton
P_C_max_Sm_hl = 1.0             !   [day-1] default = 1.0
                                ! maximum photosynthesis rate at 0 deg. C, high-light adapted small
                                ! phytoplankton
P_C_max_Di_ll = 0.3             !   [day-1] default = 0.3
                                ! maximum photosynthesis rate at 0 deg. C, low-light adapted diazotrophs
P_C_max_Lg_ll = 0.5             !   [day-1] default = 0.5
                                ! maximum photosynthesis rate at 0 deg. C, low-light adapted large phytoplankton
P_C_max_Md_ll = 0.55            !   [day-1] default = 0.55
                                ! maximum photosynthesis rate at 0 deg. C, low-light adapted medium
                                ! phytoplankton
P_C_max_Sm_ll = 0.5             !   [day-1] default = 0.5
                                ! maximum photosynthesis rate at 0 deg. C, low-light adapted small phytoplankton
numlightadapt = 10              !   [number of ecotypes] default = 10
                                ! number of light adaptation ecotypes
thetamax_Di = 0.035             !   [g chl g C-1] default = 0.035
                                ! maximum chlorophyll to carbon ratio for diazotrophs
thetamax_Lg = 0.07              !   [g chl g C-1] default = 0.07
                                ! maximum chlorophyll to carbon ratio for large phytoplankton
thetamax_Md = 0.045             !   [g chl g C-1] default = 0.045
                                ! maximum chlorophyll to carbon ratio for medium phytoplankton
thetamax_Sm = 0.035             !   [g chl g C-1] default = 0.035
                                ! maximum chlorophyll to carbon ratio for small phytoplankton
bresp_frac_mixed_Di = 0.02      !   [none] default = 0.02
                                ! diazotroph basal respiration rate in mixed layer as fraction of max
                                ! photosynthesis
bresp_frac_mixed_Lg = 0.02      !   [none] default = 0.02
                                ! large phytoplankton basal respiration rate in mixed layer as fraction of max
                                ! photosynthesis
bresp_frac_mixed_Md = 0.02      !   [none] default = 0.02
                                ! medium phytoplankton basal respiration rate in mixed layer as fraction of max
                                ! photosynthesis
bresp_frac_mixed_Sm = 0.02      !   [none] default = 0.02
                                ! small phytoplankton basal respiration rate in mixed layer as fraction of max
                                ! photosynthesis
bresp_frac_strat_Di = 0.01      !   [none] default = 0.01
                                ! diazotroph basal respiration rate below mixed layer as fraction of max
                                ! photosynthesis
bresp_frac_strat_Lg = 0.01      !   [none] default = 0.01
                                ! large phytoplankton basal respiration rate below mixed layer as fraction of
                                ! max photosynthesis
bresp_frac_strat_Md = 0.01      !   [none] default = 0.01
                                ! medium phytoplankton basal respiration rate below mixed layer as fraction of
                                ! max photosynthesis
bresp_frac_strat_Sm = 0.01      !   [none] default = 0.01
                                ! small phytoplankton basal respiration rate below mixed layer as fraction of
                                ! max photosynthesis
thetamin = 0.002                !   [g chl g C-1] default = 0.002
                                ! minimum chlorophyll to carbon ratio
zeta = 0.05                     !   [none] default = 0.05
                                ! cost of biosynthesis
par_adj = 0.83                  !   [none] default = 0.83
                                ! photosynthetically active fraction of shortwave radiation
gamma_irr_aclm = 1.0            !   [day-1] default = 1.0
                                ! time scale for determining the photoacclimation irradiance
gamma_mu_mem = 1.0              !   [day-1] default = 1.0
                                ! time scale for determining growth rates for phytoplankton stress calculations
ml_aclm_efold = 2.5             !   [none] default = 2.5
                                ! number of e-folding depths for photoacclimation in deep mixed layers
zmld_ref = 10.0                 !   [m] default = 10.0
                                ! reference depth for mixed layer calculation
densdiff_mld = 0.03             !   [kg m-3] default = 0.03
                                ! potential density difference for determining mixed layer depth
do_case2_mod = True             !   [Boolean] default = False
                                ! When true, modify the opacity of case 2 (coastal) waterswhich are identified
                                ! based on a salinity and depth threshold
case2_depth = 30.0              !   [m] default = 30.0
                                ! Depth threshold to identify Case 2 water when using a modified opacity.
case2_salt = 30.0               !   [PSU] default = 30.0
                                ! Salinity threshold to identify Case 2 water when using a modified opacity.
case2_opac_add = 0.05           !   [m-1] default = 0.05
                                ! Additional opactity added in Case 2 waters when using a modified opacity.
min_daylength = 6.0             !   [hours] default = 6.0
                                ! minimum daylength for calculating the daytime irradiance
refuge_conc = 1.0E-10           !   [mol N kg-1] default = 1.0E-10
                                ! refuge concentration for grazing and loss terms
o2_inhib_Di_pow = 4.0           !   [none] default = 4.0
                                ! exponent controlling the shape of the function inhibiting nitrogen fixation at
                                ! high o2
o2_inhib_Di_sat = 3.0E-04       !   [mol O2 kg-1] default = 3.0E-04
                                ! oxygen concentration where nitrogen fixation is 1/2 maximal values
c_2_n = 6.625                   !   [mol C mol N-1] default = 6.625
                                ! carbon to nitrogen ratio of organic matter
p_2_n_min_Di = 0.025            !   [mol P mol N-1] default = 0.025
                                ! minimum diazotroph P:N ratio
p_2_n_slope_Di = 0.0            !   [mol P mol N-1 mol PO4-1 kg] default = 0.0
                                ! increase in diazotroph P:N ratio per unit phosphate concentration
p_2_n_max_Di = 0.025            !   [mol P mol N-1] default = 0.025
                                ! maximum diazotroph P:N ratio
p_2_n_min_Sm = 0.032258064516129 !   [mol P mol N-1] default = 0.032258064516129
                                ! minimum small phytoplankton P:N ratio
p_2_n_slope_Sm = 4.8E+04        !   [mol P mol N-1 mol PO4-1 kg] default = 4.8E+04
                                ! increase in small phytoplankton P:N ratio per unit phosphate concentration
p_2_n_max_Sm = 0.05             !   [mol P mol N-1] default = 0.05
                                ! maximum small phytoplankton P:N ratio
p_2_n_min_Md = 0.032258064516129 !   [mol P mol N-1] default = 0.032258064516129
                                ! minimum medium phytoplankton P:N ratio
p_2_n_slope_Md = 4.8E+04        !   [mol P mol N-1 mol PO4-1 kg] default = 4.8E+04
                                ! increase in medium phytoplankton P:N ratio per unit phosphate concentration
p_2_n_max_Md = 0.0625           !   [mol P mol N-1] default = 0.0625
                                ! maximum medium phytoplankton P:N ratio
p_2_n_min_Lg = 0.032258064516129 !   [mol P mol N-1] default = 0.032258064516129
                                ! minimum large phytoplankton P:N ratio
p_2_n_slope_Lg = 4.8E+04        !   [mol P mol N-1 mol PO4-1 kg] default = 4.8E+04
                                ! increase in large phytoplankton P:N ratio per unit phosphate concentration
p_2_n_max_Lg = 0.0714285714285714 !   [mol P mol N-1] default = 0.0714285714285714
                                ! maximum large phytoplankton P:N ratio
si_2_n_max_Lg = 3.0             !   [mol Si mol N-1] default = 3.0
                                ! maximum large phytoplankton silica to nitrogen ratio
si_2_n_max_Md = 1.0             !   [mol Si mol N-1] default = 1.0
                                ! maximum medium phytoplankton silica to nitrogen ratio
q_p_2_n_smz = 0.05              !   [mol P mol N-1] default = 0.05
                                ! Small zooplankton P:N
q_p_2_n_mdz = 0.0555555555555556 !   [mol P mol N-1] default = 0.0555555555555556
                                ! Medium zooplankton P:N
q_p_2_n_lgz = 0.0625            !   [mol P mol N-1] default = 0.0625
                                ! Large zooplankton P:N
mu_max_bact = 1.0               !   [day-1] default = 1.0
                                ! max bacterial growth at 0 deg. C
k_ldon_bact = 5.0E-07           !   [mol ldon kg-1] default = 5.0E-07
                                ! half-sat for bacteria uptake of labile dissolved organic nitrogen
ktemp_bact = 0.063              !   [deg. C-1] default = 0.063
                                ! exponential temperature dependence of bacteria rates
gge_max_bact = 0.4              !   [none] default = 0.4
                                ! maximum gross growth efficiency for bacteria
bresp_bact = 0.0075             !   [day-1] default = 0.0075
                                ! basal respiration rate for bacteria at 0 deg. C
q_p_2_n_bact = 0.0625           !   [mol P mol N-1] default = 0.0625
                                ! Bacteria P:N
frac_mu_stress_Sm = 0.4         !   [none] default = 0.4
                                ! fraction of max growth when stress-dependent losses initiate for small
                                ! phytoplankton
frac_mu_stress_Di = 0.4         !   [none] default = 0.4
                                ! fraction of max growth when stress-dependent losses initiate for diazotrophs
frac_mu_stress_Lg = 0.4         !   [none] default = 0.4
                                ! fraction of max growth when stress-dependent losses initiate for large
                                ! phytoplankton
frac_mu_stress_Md = 0.4         !   [none] default = 0.4
                                ! fraction of max growth when stress-dependent losses initiate for medium
                                ! phytoplankton
agg_Sm = 0.05                   !   [day-1 (micromol N kg-1)-1] default = 0.05
                                ! aggregation rate constant for small phytoplankton
agg_Di = 0.0                    !   [day-1 (micromol N kg-1)-1] default = 0.0
                                ! aggregation rate constant for diazotrophs
agg_Lg = 0.25                   !   [day-1 (micromol N kg-1)-1] default = 0.25
                                ! aggregation rate constant for large phytoplankton
agg_Md = 0.1                    !   [day-1 (micromol N kg-1)-1] default = 0.1
                                ! aggregation rate constant for medium phytoplankton
vir_Sm = 0.25                   !   [day-1 (micromol N kg-1)-1] default = 0.25
                                ! virus-driven loss rate constant for small phytoplankton @ 0 deg. C
vir_Di = 0.05                   !   [day-1 (micromol N kg-1)-1] default = 0.05
                                ! virus-driven loss rate constant for diazotrophs @ 0 deg. C
vir_Lg = 0.05                   !   [day-1 (micromol N kg-1)-1] default = 0.05
                                ! virus-driven loss rate constant for large phytoplankton @ 0 deg. C
vir_Md = 0.125                  !   [day-1 (micromol N kg-1)-1] default = 0.125
                                ! virus-driven loss rate constant for medium phytoplankton @ 0 deg. C
vir_Bact = 0.25                 !   [day-1 (micromol N kg-1)-1] default = 0.25
                                ! virus-driven loss rate constant for bacteria @ 0 deg. C
ktemp_vir = 0.063               !   [deg. C-1] default = 0.063
                                ! temperature dependence of viral loss rates
mort_Sm = 0.0                   !   [day-1] default = 0.0
                                ! mortality (cell death) rate constant for small phytoplankton @ 0 deg. C
mort_Di = 0.0                   !   [day-1] default = 0.0
                                ! mortality (cell death) rate constant for diazotrophs @ 0 deg. C
mort_Lg = 0.0                   !   [day-1] default = 0.0
                                ! mortality (cell death) rate constant for large phytoplankton @ 0 deg. C
mort_Md = 0.0                   !   [day-1] default = 0.0
                                ! mortality (cell death) rate constant for medium phytoplankton @ 0 deg. C
exu_Sm = 0.13                   !   [none] default = 0.13
                                ! fraction of small phytoplankton net primary production exuded as dissolved
                                ! organic material
exu_Di = 0.13                   !   [none] default = 0.13
                                ! fraction of diazotroph net primary production exuded as dissolved organic
                                ! material
exu_Lg = 0.13                   !   [none] default = 0.13
                                ! fraction of large phytoplankton net primary production exuded as dissolved
                                ! organic material
exu_Md = 0.13                   !   [none] default = 0.13
                                ! fraction of medium phytoplankton net primary production exuded as dissolved
                                ! organic material
sink_max_Di = 1.0               !   [m day-1] default = 1.0
                                ! diazotroph max sink rate (non-aggregated)
sink_max_Lg = 5.0               !   [m day-1] default = 5.0
                                ! large phytoplankton max sink rate (non-aggregated)
sink_max_Md = 1.0               !   [m day-1] default = 1.0
                                ! medium phytoplankton max sink rate (non-aggregated)
sink_max_Sm = 0.0               !   [m day-1] default = 0.0
                                ! small phytoplankton max sink rate (non-aggregated)
imax_smz = 1.136                !   [day-1] default = 1.136
                                ! max ingestion rate for small zooplankton @ 0 deg. C
imax_mdz = 0.57                 !   [day-1] default = 0.57
                                ! max ingestion rate for medium zooplankton @ 0 deg. C
imax_lgz = 0.23                 !   [day-1] default = 0.23
                                ! max ingestion rate for large zooplankton @ 0 deg. C
ki_smz = 1.25E-06               !   [mol N kg-1] default = 1.25E-06
                                ! half-sat for ingestion by small zooplankton
ki_mdz = 1.25E-06               !   [mol N kg-1] default = 1.25E-06
                                ! half-sat for ingestion by medium zooplankton
ki_lgz = 1.25E-06               !   [mol N kg-1] default = 1.25E-06
                                ! half-sat for ingestion by large zooplankton
ktemp_smz = 0.063               !   [deg. C-1] default = 0.063
                                ! exponential temperature dependence of small zooplankton rates
ktemp_mdz = 0.063               !   [deg. C-1] default = 0.063
                                ! exponential temperature dependence of medium zooplankton rates
ktemp_lgz = 0.063               !   [deg. C-1] default = 0.063
                                ! exponential temperature dependence of large zooplankton rates
smz_ipa_smp = 1.0               !   [none] default = 1.0
                                ! innate availability of small phytoplankton to small zooplankton feeding (0-1)
smz_ipa_mdp = 0.4               !   [none] default = 0.4
                                ! innate availability of medium phytoplankton to small zooplankton feeding (0-1)
smz_ipa_lgp = 0.0               !   [none] default = 0.0
                                ! innate availability of large phytoplankton to small zooplankton feeding (0-1)
smz_ipa_diaz = 0.0              !   [none] default = 0.0
                                ! innate availability of diazotrophs to small zooplankton feeding (0-1)
smz_ipa_smz = 0.0               !   [none] default = 0.0
                                ! innate availability of small zooplankton to small zooplankton feeding (0-1)
smz_ipa_mdz = 0.0               !   [none] default = 0.0
                                ! innate availability of medium zooplankton to small zooplankton feeding (0-1)
smz_ipa_lgz = 0.0               !   [none] default = 0.0
                                ! innate availability of large zooplankton to small zooplankton feeding (0-1)
smz_ipa_bact = 0.5              !   [none] default = 0.5
                                ! innate availability of bacteria to small zooplankton feeding (0-1)
smz_ipa_det = 0.0               !   [none] default = 0.0
                                ! innate availability of detritus to small zooplankton feeding (0-1)
mdz_ipa_smp = 0.4               !   [none] default = 0.4